LAMMPS (20 Mar 2014)
# H2O Bulk

#########################
### 1. Initialization ###
#########################

units		lj  # A,fmsec,g/mol,Kcal/mol,K,atm
boundary        m m m
atom_style      charge # molecular+charge
pair_style      grav/cut 50

##########################
### 2. Atom Definition ###
##########################

read_data     solar.data
  orthogonal box = (0 0 0) to (50 50 50)
  reading atoms ...
  9 atoms

pair_coeff * * 50

group 1 type 1
1 atoms in group 1
group 2 type 2
1 atoms in group 2
group 3 type 3
1 atoms in group 3
group 4 type 4
1 atoms in group 4
group 5 type 5
1 atoms in group 5
group 6 type 6
1 atoms in group 6
group 7 type 7
1 atoms in group 7
group 8 type 8
1 atoms in group 8
group 9 type 9
1 atoms in group 9

group planets type > 1
8 atoms in group planets

velocity 1 set 0 0 0
velocity 2 set 0 0 0.005 #1
velocity 3 set 0 0 0.005 #0.7315646543
velocity 4 set 0 0 0.005 #0.622101525
velocity 5 set 0 0 0.005 #0.5013578442
velocity 6 set 0 0 0.005 #0.2715688323
velocity 7 set 0 0 0.005 #0.1880091916
velocity 8 set 0 0 0.005 #0.125339461
velocity 9 set 0 0 0.005 #0.1044495509

###################
### 3. Settings ###
###################

timestep  1
run_style verlet

thermo_style custom step temp pe ke etotal press atoms
thermo   50

fix 2 planets nve

#########################
### 4. Run Simulation ###
#########################

dump vmd all atom 50 solar.lammpstrj

run 200000
Step Temp PotEng KinEng TotEng Press Atoms
0 8.3333333e-06 2.4836938e-05 1.1111111e-05 3.5948049e-05 -6.2734345e-11        9
Averages over the last 2001 of 4001 rows, steps 100000 to 200000:
Temp PotEng KinEng TotEng Press Atoms
2.14067e-05 4.20465e-05 2.85423e-05 7.05889e-05 8.8915e-12 9
Loop time of 1.01861 on 4 procs for 200000 steps with 9 atoms

Pair  time (%) = 0.0310183 (3.04516)
Neigh time (%) = 0.0176213 (1.72994)
Comm  time (%) = 0.465794 (45.7284)
Outpt time (%) = 0.183509 (18.0156)
Other time (%) = 0.320668 (31.4809)
